/*--------------------------------*- C++ -*----------------------------------*\
  =========                 |
  \\      /  F ield         | OpenFOAM: The Open Source CFD Toolbox
   \\    /   O peration     | Website:  https://openfoam.org
    \\  /    A nd           | Version:  8
     \\/     M anipulation  |
\*---------------------------------------------------------------------------*/
FoamFile
{
    version     2.0;
    format      ascii;
    class       dictionary;
    object      snappyHexMeshDict;
}
// * * * * * * * * * * * * * * * * * * * * * * * * * * * * * * * * * * * * * //

#includeEtc "caseDicts/mesh/generation/snappyHexMeshDict.cfg"

castellatedMesh on;
snap            on;
addLayers       off;

geometry
{
    walls    
    {
      type    searchableBox;
      min     (-0.015 -0.015 0);
      max     (0.015 0.015 0.030);
    }

    cylinderSurface
    {
        type    searchableCylinder;
        point1          (0 0 0.010);
        point2          (0 0 0.020);
        radius          0.0005;
    }
};

castellatedMeshControls
{
    // features
    // (
    //     {
    //        file "pipe.eMesh";
    //        levels ((1 1));
    //     }
    // );

    refinementSurfaces
    {
        walls
        {
            level (2 2);
            patchInfo
            {
                type wall;
            }
        }

        cylinderSurface
        {
            level (2 2);
            patchInfo
            {
                type wall;
            }
        }
    }

    refinementRegions
    {
        cylinderSurface
        {
            mode distance;
            levels ((0.002 3) (0.010 2));
        }
    }

    locationInMesh (0.007 0.007 0.007);
}

snapControls
{
    // Number of patch smoothing iterations before finding correspondence
    // to surface
    nSmoothPatch 5;

    // Maximum relative distance for points to be attracted by surface.
    // True distance is this factor times local maximum edge length.
    // Note: changed(corrected) w.r.t 17x! (17x used 2* tolerance)
    tolerance 3.0;

    // Number of mesh displacement relaxation iterations.
    nSolveIter 30;

    // Maximum number of snapping relaxation iterations. Should stop
    // before upon reaching a correct mesh.
    nRelaxIter 5;

    // Feature snapping

        // Number of feature edge snapping iterations.
        // Leave out altogether to disable.
        nFeatureSnapIter 15;

        // Detect (geometric only) features by sampling the surface
        // (default=false).
        implicitFeatureSnap false;

        // Use castellatedMeshControls::features (default = true)
        explicitFeatureSnap true;

        // Detect features between multiple surfaces
        // (only for explicitFeatureSnap, default = false)
        multiRegionFeatureSnap false;
}

addLayersControls
{
    layers
    {
    }

    relativeSizes       true;
    expansionRatio      1.2;
    finalLayerThickness 0.5;
    minThickness        1e-3;
}

writeFlags
(
);

mergeTolerance 1e-6;

// ************************************************************************* //
