/*--------------------------------*- C++ -*----------------------------------*\
  =========                 |
  \\      /  F ield         | OpenFOAM: The Open Source CFD Toolbox
   \\    /   O peration     | Website:  https://openfoam.org
    \\  /    A nd           | Version:  8
     \\/     M anipulation  |
\*---------------------------------------------------------------------------*/
FoamFile
{
    version     2.0;
    format      binary;
    class       volScalarField;
    location    "0/pipe";
    object      cellToRegion;
}
// * * * * * * * * * * * * * * * * * * * * * * * * * * * * * * * * * * * * * //

dimensions      [0 0 0 0 0 0 0];

internalField   uniform 1;

boundaryField
{
    pipeFront
    {
        type            zeroGradient;
    }
    pipeBack
    {
        type            zeroGradient;
    }
    pipe_to_innerFluid
    {
        type            calculated;
        value           uniform 0;
    }
    pipe_to_outerFluid
    {
        type            calculated;
        value           uniform 0;
    }
}


// ************************************************************************* //
